<?xml version="1.0" encoding="UTF-8"?>

<!-- generated on Wed 07 Aug 2024 02:56:54 PM CET by Eclipse SUMO netedit Version 1.8.0
<configuration xmlns:xsi="http://www.w3.org/2001/XMLSchema-instance" xsi:noNamespaceSchemaLocation="http://sumo.dlr.de/xsd/netconvertConfiguration.xsd">

    <output>
        <output-file value="/home/marl/marl/simulations/cities/cities.net.xml"/>
    </output>

    <processing>
        <offset.disable-normalization value="true"/>
    </processing>

    <junctions>
        <no-turnarounds value="true"/>
    </junctions>

    <netedit>
        <route-files value="/home/marl/marl/simulations/cities/cities.rou.xml"/>
    </netedit>

    <report>
        <aggregate-warnings value="5"/>
    </report>

</configuration>
-->

<net version="1.6" junctionCornerDetail="5" limitTurnSpeed="5.50" xmlns:xsi="http://www.w3.org/2001/XMLSchema-instance" xsi:noNamespaceSchemaLocation="http://sumo.dlr.de/xsd/net_file.xsd">

    <location netOffset="0.00,0.00" convBoundary="-900.00,300.00,300.00,1500.00" origBoundary="10000000000.00,10000000000.00,-10000000000.00,-10000000000.00" projParameter="!"/>

    <edge id=":gneJ10_0" function="internal">
        <lane id=":gneJ10_0_0" index="0" speed="3.90" length="2.58" shape="-698.40,1100.00 -698.50,1100.70 -698.80,1101.20 -699.30,1101.50 -700.00,1101.60"/>
    </edge>
    <edge id=":gneJ11_0" function="internal">
        <lane id=":gneJ11_0_0" index="0" speed="3.90" length="2.58" shape="-896.80,1101.60 -897.50,1101.70 -898.00,1102.00 -898.30,1102.50 -898.40,1103.20"/>
    </edge>
    <edge id=":gneJ12_0" function="internal">
        <lane id=":gneJ12_0_0" index="0" speed="3.92" length="3.25" shape="0.51,1501.52 -0.42,1501.69 -1.07,1501.49 -1.47,1500.93 -1.60,1500.00"/>
    </edge>
    <edge id=":gneJ13_0" function="internal">
        <lane id=":gneJ13_0_0" index="0" speed="3.90" length="2.58" shape="-1.60,1200.00 -1.50,1199.30 -1.20,1198.80 -0.70,1198.50 0.00,1198.40"/>
    </edge>
    <edge id=":gneJ14_0" function="internal">
        <lane id=":gneJ14_0_0" index="0" speed="3.90" length="2.58" shape="96.80,1198.40 97.50,1198.30 98.00,1198.00 98.30,1197.50 98.40,1196.80"/>
    </edge>
    <edge id=":gneJ15_0" function="internal">
        <lane id=":gneJ15_0_0" index="0" speed="4.12" length="4.78" shape="98.40,1000.00 98.57,998.48 99.08,997.79 99.94,997.92 101.13,998.87"/>
    </edge>
    <edge id=":gneJ16_0" function="internal">
        <lane id=":gneJ16_0_0" index="0" speed="4.20" length="1.26" shape="301.13,1198.87 301.34,1199.12 301.48,1199.39 301.57,1199.68 301.60,1200.00"/>
    </edge>
    <edge id=":gneJ17_0" function="internal">
        <lane id=":gneJ17_0_0" index="0" speed="3.95" length="2.01" shape="301.60,1400.00 301.53,1400.53 301.33,1400.96 300.98,1401.29 300.51,1401.52"/>
    </edge>
    <edge id=":gneJ18_0" function="internal">
        <lane id=":gneJ18_0_0" index="0" speed="4.12" length="4.78" shape="-295.11,793.81 -295.64,795.24 -295.49,796.09 -294.67,796.36 -293.18,796.04"/>
    </edge>
    <edge id=":gneJ19_0" function="internal">
        <lane id=":gneJ19_0_0" index="0" speed="4.20" length="1.26" shape="-0.51,698.48 -0.19,698.41 0.11,698.40 0.42,698.45 0.72,698.57"/>
    </edge>
    <edge id=":gneJ20_0" function="internal">
        <lane id=":gneJ20_0_0" index="0" speed="3.90" length="2.86" shape="197.42,796.92 198.17,797.17 198.80,797.10 199.29,796.71 199.65,795.99"/>
    </edge>
    <edge id=":gneJ21_0" function="internal">
        <lane id=":gneJ21_0_0" index="0" speed="3.94" length="2.11" shape="297.71,501.81 297.81,501.26 297.74,500.77 297.50,500.34 297.08,499.98"/>
    </edge>
    <edge id=":gneJ22_0" function="internal">
        <lane id=":gneJ22_0_0" index="0" speed="4.49" length="6.76" shape="9.14,308.02 7.11,306.89 6.05,306.86 5.95,307.91 6.82,310.06"/>
    </edge>
    <edge id=":gneJ23_0" function="internal">
        <lane id=":gneJ23_0_0" index="0" speed="3.90" length="2.86" shape="101.43,499.28 101.68,500.04 101.61,500.67 101.22,501.16 100.51,501.52"/>
    </edge>
    <edge id=":gneJ24_0" function="internal">
        <lane id=":gneJ24_0_0" index="0" speed="4.20" length="1.26" shape="-198.24,601.10 -198.53,601.23 -198.78,601.40 -198.99,601.63 -199.16,601.90"/>
    </edge>
    <edge id=":gneJ4_0" function="internal">
        <lane id=":gneJ4_0_0" index="0" speed="3.90" length="2.58" shape="-898.40,1496.80 -898.30,1497.50 -898.00,1498.00 -897.50,1498.30 -896.80,1498.40"/>
    </edge>
    <edge id=":gneJ5_0" function="internal">
        <lane id=":gneJ5_0_0" index="0" speed="3.90" length="2.58" shape="-603.20,1498.40 -602.50,1498.30 -602.00,1498.00 -601.70,1497.50 -601.60,1496.80"/>
    </edge>
    <edge id=":gneJ6_0" function="internal">
        <lane id=":gneJ6_0_0" index="0" speed="3.90" length="2.58" shape="-601.60,1200.00 -601.50,1199.30 -601.20,1198.80 -600.70,1198.50 -600.00,1198.40"/>
    </edge>
    <edge id=":gneJ7_0" function="internal">
        <lane id=":gneJ7_0_0" index="0" speed="3.90" length="2.58" shape="-303.20,1198.40 -302.50,1198.30 -302.00,1198.00 -301.70,1197.50 -301.60,1196.80"/>
    </edge>
    <edge id=":gneJ8_0" function="internal">
        <lane id=":gneJ8_0_0" index="0" speed="3.90" length="2.58" shape="-301.60,903.20 -301.70,902.50 -302.00,902.00 -302.50,901.70 -303.20,901.60"/>
    </edge>
    <edge id=":gneJ9_0" function="internal">
        <lane id=":gneJ9_0_0" index="0" speed="3.90" length="2.58" shape="-696.80,901.60 -697.50,901.70 -698.00,902.00 -698.30,902.50 -698.40,903.20"/>
    </edge>

    <edge id="edge1" from="gneJ4" to="gneJ5" priority="-1">
        <lane id="edge1_0" index="0" speed="13.89" length="293.60" shape="-896.80,1498.40 -603.20,1498.40"/>
    </edge>
    <edge id="edge10" from="gneJ16" to="gneJ17" priority="-1">
        <lane id="edge10_0" index="0" speed="13.89" length="200.00" shape="301.60,1200.00 301.60,1400.00"/>
    </edge>
    <edge id="edge11" from="gneJ15" to="gneJ16" priority="-1">
        <lane id="edge11_0" index="0" speed="13.89" length="282.84" shape="101.13,998.87 301.13,1198.87"/>
    </edge>
    <edge id="edge12" from="gneJ14" to="gneJ15" priority="-1">
        <lane id="edge12_0" index="0" speed="13.89" length="196.80" shape="98.40,1196.80 98.40,1000.00"/>
    </edge>
    <edge id="edge13" from="gneJ13" to="gneJ14" priority="-1">
        <lane id="edge13_0" index="0" speed="13.89" length="96.80" shape="0.00,1198.40 96.80,1198.40"/>
    </edge>
    <edge id="edge14" from="gneJ12" to="gneJ13" priority="-1">
        <lane id="edge14_0" index="0" speed="13.89" length="300.00" shape="-1.60,1500.00 -1.60,1200.00"/>
    </edge>
    <edge id="edge15" from="gneJ18" to="gneJ19" priority="-1">
        <lane id="edge15_0" index="0" speed="13.89" length="308.50" shape="-293.18,796.04 -0.51,698.48"/>
    </edge>
    <edge id="edge16" from="gneJ19" to="gneJ20" priority="-1">
        <lane id="edge16_0" index="0" speed="13.89" length="219.92" shape="0.72,698.57 197.42,796.92"/>
    </edge>
    <edge id="edge17" from="gneJ20" to="gneJ21" priority="-1">
        <lane id="edge17_0" index="0" speed="13.89" length="310.09" shape="199.65,795.99 297.71,501.81"/>
    </edge>
    <edge id="edge18" from="gneJ21" to="gneJ22" priority="-1">
        <lane id="edge18_0" index="0" speed="13.89" length="346.06" shape="297.08,499.98 9.14,308.02"/>
    </edge>
    <edge id="edge19" from="gneJ22" to="gneJ23" priority="-1">
        <lane id="edge19_0" index="0" speed="13.89" length="211.56" shape="6.82,310.06 101.43,499.28"/>
    </edge>
    <edge id="edge2" from="gneJ5" to="gneJ6" priority="-1">
        <lane id="edge2_0" index="0" speed="13.89" length="296.80" shape="-601.60,1496.80 -601.60,1200.00"/>
    </edge>
    <edge id="edge20" from="gneJ23" to="gneJ24" priority="-1">
        <lane id="edge20_0" index="0" speed="13.89" length="314.90" shape="100.51,501.52 -198.24,601.10"/>
    </edge>
    <edge id="edge21" from="gneJ24" to="gneJ18" priority="-1">
        <lane id="edge21_0" index="0" speed="13.89" length="214.56" shape="-199.16,601.90 -295.11,793.81"/>
    </edge>
    <edge id="edge3" from="gneJ6" to="gneJ7" priority="-1">
        <lane id="edge3_0" index="0" speed="13.89" length="296.80" shape="-600.00,1198.40 -303.20,1198.40"/>
    </edge>
    <edge id="edge4" from="gneJ7" to="gneJ8" priority="-1">
        <lane id="edge4_0" index="0" speed="13.89" length="293.60" shape="-301.60,1196.80 -301.60,903.20"/>
    </edge>
    <edge id="edge5" from="gneJ8" to="gneJ9" priority="-1">
        <lane id="edge5_0" index="0" speed="13.89" length="393.60" shape="-303.20,901.60 -696.80,901.60"/>
    </edge>
    <edge id="edge6" from="gneJ9" to="gneJ10" priority="-1">
        <lane id="edge6_0" index="0" speed="13.89" length="196.80" shape="-698.40,903.20 -698.40,1100.00"/>
    </edge>
    <edge id="edge7" from="gneJ10" to="gneJ11" priority="-1">
        <lane id="edge7_0" index="0" speed="13.89" length="196.80" shape="-700.00,1101.60 -896.80,1101.60"/>
    </edge>
    <edge id="edge8" from="gneJ11" to="gneJ4" priority="-1">
        <lane id="edge8_0" index="0" speed="13.89" length="393.60" shape="-898.40,1103.20 -898.40,1496.80"/>
    </edge>
    <edge id="edge9" from="gneJ17" to="gneJ12" priority="-1">
        <lane id="edge9_0" index="0" speed="13.89" length="316.23" shape="300.51,1401.52 0.51,1501.52"/>
    </edge>

    <junction id="gneJ10" type="priority" x="-700.00" y="1100.00" incLanes="edge6_0" intLanes=":gneJ10_0_0" shape="-696.80,1100.00 -700.00,1100.00 -700.00,1103.20 -698.22,1102.84 -697.60,1102.40 -697.16,1101.78 -696.89,1100.98">
        <request index="0" response="0" foes="0" cont="0"/>
    </junction>
    <junction id="gneJ11" type="priority" x="-900.00" y="1100.00" incLanes="edge7_0" intLanes=":gneJ11_0_0" shape="-900.00,1103.20 -896.80,1103.20 -896.80,1100.00 -898.58,1100.36 -899.20,1100.80 -899.64,1101.42 -899.91,1102.22">
        <request index="0" response="0" foes="0" cont="0"/>
    </junction>
    <junction id="gneJ12" type="priority" x="0.00" y="1500.00" incLanes="edge9_0" intLanes=":gneJ12_0_0" shape="1.01,1503.04 0.00,1500.00 -3.20,1500.00 -2.73,1502.31 -2.15,1502.98 -1.33,1503.32 -0.28,1503.34">
        <request index="0" response="0" foes="0" cont="0"/>
    </junction>
    <junction id="gneJ13" type="priority" x="0.00" y="1200.00" incLanes="edge14_0" intLanes=":gneJ13_0_0" shape="-3.20,1200.00 0.00,1200.00 0.00,1196.80 -1.78,1197.16 -2.40,1197.60 -2.84,1198.22 -3.11,1199.02">
        <request index="0" response="0" foes="0" cont="0"/>
    </junction>
    <junction id="gneJ14" type="priority" x="100.00" y="1200.00" incLanes="edge13_0" intLanes=":gneJ14_0_0" shape="100.00,1196.80 96.80,1196.80 96.80,1200.00 98.58,1199.64 99.20,1199.20 99.64,1198.58 99.91,1197.78">
        <request index="0" response="0" foes="0" cont="0"/>
    </junction>
    <junction id="gneJ15" type="priority" x="100.00" y="1000.00" incLanes="edge12_0" intLanes=":gneJ15_0_0" shape="96.80,1000.00 100.00,1000.00 102.26,997.74 100.59,996.28 99.23,995.56 98.17,995.57 97.41,996.32 96.95,997.79">
        <request index="0" response="0" foes="0" cont="0"/>
    </junction>
    <junction id="gneJ16" type="priority" x="300.00" y="1200.00" incLanes="edge11_0" intLanes=":gneJ16_0_0" shape="300.00,1200.00 303.20,1200.00 303.10,1199.16 302.97,1198.77 302.78,1198.41 302.55,1198.06 302.26,1197.74">
        <request index="0" response="0" foes="0" cont="0"/>
    </junction>
    <junction id="gneJ17" type="priority" x="300.00" y="1400.00" incLanes="edge10_0" intLanes=":gneJ17_0_0" shape="303.20,1400.00 300.00,1400.00 301.01,1403.04 302.23,1402.37 302.65,1401.91 302.96,1401.36 303.14,1400.73">
        <request index="0" response="0" foes="0" cont="0"/>
    </junction>
    <junction id="gneJ18" type="priority" x="-300.00" y="800.00" incLanes="edge21_0" intLanes=":gneJ18_0_0" shape="-292.67,797.56 -293.68,794.52 -296.55,793.09 -297.40,795.13 -297.65,796.66 -297.30,797.66 -296.36,798.15 -294.81,798.11">
        <request index="0" response="0" foes="0" cont="0"/>
    </junction>
    <junction id="gneJ19" type="priority" x="0.00" y="700.00" incLanes="edge15_0" intLanes=":gneJ19_0_0" shape="0.00,700.00 1.43,697.14 0.63,696.86 0.23,696.80 -0.18,696.80 -0.59,696.85 -1.01,696.96">
        <request index="0" response="0" foes="0" cont="0"/>
    </junction>
    <junction id="gneJ20" type="priority" x="200.00" y="800.00" incLanes="edge16_0" intLanes=":gneJ20_0_0" shape="201.17,796.50 198.13,795.49 196.70,798.35 198.66,798.88 199.47,798.71 200.15,798.26 200.72,797.52">
        <request index="0" response="0" foes="0" cont="0"/>
    </junction>
    <junction id="gneJ21" type="priority" x="300.00" y="500.00" incLanes="edge17_0" intLanes=":gneJ21_0_0" shape="297.97,498.64 296.19,501.31 299.23,502.32 299.43,500.88 299.30,500.24 299.01,499.66 298.57,499.12">
        <request index="0" response="0" foes="0" cont="0"/>
    </junction>
    <junction id="gneJ22" type="priority" x="0.00" y="300.00" incLanes="edge18_0" intLanes=":gneJ22_0_0" shape="5.39,310.78 8.25,309.35 10.03,306.68 7.11,304.94 5.05,304.17 3.85,304.37 3.51,305.53 4.02,307.67">
        <request index="0" response="0" foes="0" cont="0"/>
    </junction>
    <junction id="gneJ23" type="priority" x="100.00" y="500.00" incLanes="edge19_0" intLanes=":gneJ23_0_0" shape="102.86,498.57 100.00,500.00 101.01,503.04 102.77,502.02 103.22,501.34 103.39,500.53 103.27,499.61">
        <request index="0" response="0" foes="0" cont="0"/>
    </junction>
    <junction id="gneJ24" type="priority" x="-200.00" y="600.00" incLanes="edge20_0" intLanes=":gneJ24_0_0" shape="-197.73,602.62 -198.74,599.58 -199.51,599.95 -199.83,600.19 -200.12,600.48 -200.38,600.81 -200.59,601.19">
        <request index="0" response="0" foes="0" cont="0"/>
    </junction>
    <junction id="gneJ4" type="priority" x="-900.00" y="1500.00" incLanes="edge8_0" intLanes=":gneJ4_0_0" shape="-896.80,1500.00 -896.80,1496.80 -900.00,1496.80 -899.64,1498.58 -899.20,1499.20 -898.58,1499.64 -897.78,1499.91">
        <request index="0" response="0" foes="0" cont="0"/>
    </junction>
    <junction id="gneJ5" type="priority" x="-600.00" y="1500.00" incLanes="edge1_0" intLanes=":gneJ5_0_0" shape="-600.00,1496.80 -603.20,1496.80 -603.20,1500.00 -601.42,1499.64 -600.80,1499.20 -600.36,1498.58 -600.09,1497.78">
        <request index="0" response="0" foes="0" cont="0"/>
    </junction>
    <junction id="gneJ6" type="priority" x="-600.00" y="1200.00" incLanes="edge2_0" intLanes=":gneJ6_0_0" shape="-603.20,1200.00 -600.00,1200.00 -600.00,1196.80 -601.78,1197.16 -602.40,1197.60 -602.84,1198.22 -603.11,1199.02">
        <request index="0" response="0" foes="0" cont="0"/>
    </junction>
    <junction id="gneJ7" type="priority" x="-300.00" y="1200.00" incLanes="edge3_0" intLanes=":gneJ7_0_0" shape="-300.00,1196.80 -303.20,1196.80 -303.20,1200.00 -301.42,1199.64 -300.80,1199.20 -300.36,1198.58 -300.09,1197.78">
        <request index="0" response="0" foes="0" cont="0"/>
    </junction>
    <junction id="gneJ8" type="priority" x="-300.00" y="900.00" incLanes="edge4_0" intLanes=":gneJ8_0_0" shape="-303.20,903.20 -300.00,903.20 -300.36,901.42 -300.80,900.80 -301.42,900.36 -302.22,900.09 -303.20,900.00">
        <request index="0" response="0" foes="0" cont="0"/>
    </junction>
    <junction id="gneJ9" type="priority" x="-700.00" y="900.00" incLanes="edge5_0" intLanes=":gneJ9_0_0" shape="-700.00,903.20 -696.80,903.20 -696.80,900.00 -698.58,900.36 -699.20,900.80 -699.64,901.42 -699.91,902.22">
        <request index="0" response="0" foes="0" cont="0"/>
    </junction>

    <connection from="edge1" to="edge2" fromLane="0" toLane="0" via=":gneJ5_0_0" dir="r" state="M"/>
    <connection from="edge10" to="edge9" fromLane="0" toLane="0" via=":gneJ17_0_0" dir="l" state="M"/>
    <connection from="edge11" to="edge10" fromLane="0" toLane="0" via=":gneJ16_0_0" dir="l" state="M"/>
    <connection from="edge12" to="edge11" fromLane="0" toLane="0" via=":gneJ15_0_0" dir="l" state="M"/>
    <connection from="edge13" to="edge12" fromLane="0" toLane="0" via=":gneJ14_0_0" dir="r" state="M"/>
    <connection from="edge14" to="edge13" fromLane="0" toLane="0" via=":gneJ13_0_0" dir="l" state="M"/>
    <connection from="edge15" to="edge16" fromLane="0" toLane="0" via=":gneJ19_0_0" dir="l" state="M"/>
    <connection from="edge16" to="edge17" fromLane="0" toLane="0" via=":gneJ20_0_0" dir="r" state="M"/>
    <connection from="edge17" to="edge18" fromLane="0" toLane="0" via=":gneJ21_0_0" dir="r" state="M"/>
    <connection from="edge18" to="edge19" fromLane="0" toLane="0" via=":gneJ22_0_0" dir="r" state="M"/>
    <connection from="edge19" to="edge20" fromLane="0" toLane="0" via=":gneJ23_0_0" dir="l" state="M"/>
    <connection from="edge2" to="edge3" fromLane="0" toLane="0" via=":gneJ6_0_0" dir="l" state="M"/>
    <connection from="edge20" to="edge21" fromLane="0" toLane="0" via=":gneJ24_0_0" dir="r" state="M"/>
    <connection from="edge21" to="edge15" fromLane="0" toLane="0" via=":gneJ18_0_0" dir="r" state="M"/>
    <connection from="edge3" to="edge4" fromLane="0" toLane="0" via=":gneJ7_0_0" dir="r" state="M"/>
    <connection from="edge4" to="edge5" fromLane="0" toLane="0" via=":gneJ8_0_0" dir="r" state="M"/>
    <connection from="edge5" to="edge6" fromLane="0" toLane="0" via=":gneJ9_0_0" dir="r" state="M"/>
    <connection from="edge6" to="edge7" fromLane="0" toLane="0" via=":gneJ10_0_0" dir="l" state="M"/>
    <connection from="edge7" to="edge8" fromLane="0" toLane="0" via=":gneJ11_0_0" dir="r" state="M"/>
    <connection from="edge8" to="edge1" fromLane="0" toLane="0" via=":gneJ4_0_0" dir="r" state="M"/>
    <connection from="edge9" to="edge14" fromLane="0" toLane="0" via=":gneJ12_0_0" dir="l" state="M"/>

    <connection from=":gneJ10_0" to="edge7" fromLane="0" toLane="0" dir="l" state="M"/>
    <connection from=":gneJ11_0" to="edge8" fromLane="0" toLane="0" dir="r" state="M"/>
    <connection from=":gneJ12_0" to="edge14" fromLane="0" toLane="0" dir="l" state="M"/>
    <connection from=":gneJ13_0" to="edge13" fromLane="0" toLane="0" dir="l" state="M"/>
    <connection from=":gneJ14_0" to="edge12" fromLane="0" toLane="0" dir="r" state="M"/>
    <connection from=":gneJ15_0" to="edge11" fromLane="0" toLane="0" dir="l" state="M"/>
    <connection from=":gneJ16_0" to="edge10" fromLane="0" toLane="0" dir="l" state="M"/>
    <connection from=":gneJ17_0" to="edge9" fromLane="0" toLane="0" dir="l" state="M"/>
    <connection from=":gneJ18_0" to="edge15" fromLane="0" toLane="0" dir="r" state="M"/>
    <connection from=":gneJ19_0" to="edge16" fromLane="0" toLane="0" dir="l" state="M"/>
    <connection from=":gneJ20_0" to="edge17" fromLane="0" toLane="0" dir="r" state="M"/>
    <connection from=":gneJ21_0" to="edge18" fromLane="0" toLane="0" dir="r" state="M"/>
    <connection from=":gneJ22_0" to="edge19" fromLane="0" toLane="0" dir="r" state="M"/>
    <connection from=":gneJ23_0" to="edge20" fromLane="0" toLane="0" dir="l" state="M"/>
    <connection from=":gneJ24_0" to="edge21" fromLane="0" toLane="0" dir="r" state="M"/>
    <connection from=":gneJ4_0" to="edge1" fromLane="0" toLane="0" dir="r" state="M"/>
    <connection from=":gneJ5_0" to="edge2" fromLane="0" toLane="0" dir="r" state="M"/>
    <connection from=":gneJ6_0" to="edge3" fromLane="0" toLane="0" dir="l" state="M"/>
    <connection from=":gneJ7_0" to="edge4" fromLane="0" toLane="0" dir="r" state="M"/>
    <connection from=":gneJ8_0" to="edge5" fromLane="0" toLane="0" dir="r" state="M"/>
    <connection from=":gneJ9_0" to="edge6" fromLane="0" toLane="0" dir="r" state="M"/>

</net>
