<?xml version="1.0" encoding="UTF-8"?>

<!-- generated on Wed 07 Aug 2024 03:37:58 PM CET by Eclipse SUMO netedit Version 1.8.0
<configuration xmlns:xsi="http://www.w3.org/2001/XMLSchema-instance" xsi:noNamespaceSchemaLocation="http://sumo.dlr.de/xsd/netconvertConfiguration.xsd">

    <input>
        <sumo-net-file value="/home/marl/marl/simulations/cities/cities.net.xml"/>
    </input>

    <output>
        <output-file value="/home/marl/marl/simulations/cities/cities.net.xml"/>
    </output>

    <processing>
        <geometry.min-radius.fix.railways value="false"/>
        <geometry.max-grade.fix value="false"/>
        <offset.disable-normalization value="true"/>
        <lefthand value="false"/>
    </processing>

    <junctions>
        <no-turnarounds value="true"/>
        <junctions.corner-detail value="5"/>
        <junctions.limit-turn-speed value="5.5"/>
        <rectangular-lane-cut value="false"/>
    </junctions>

    <pedestrian>
        <walkingareas value="false"/>
    </pedestrian>

    <netedit>
        <additional-files value="/home/marl/marl/simulations/cities/cities.add.xml"/>
    </netedit>

    <report>
        <aggregate-warnings value="5"/>
    </report>

</configuration>
-->

<additional xmlns:xsi="http://www.w3.org/2001/XMLSchema-instance" xsi:noNamespaceSchemaLocation="http://sumo.dlr.de/xsd/additional_file.xsd">
    <rerouter id="rerouter_0" edges="edge1" pos="0.00,0.00"/>
    <rerouter id="rerouter_2" edges="edge2" pos="0.00,0.00"/>
    <rerouter id="rerouter_3" edges="edge9" pos="0.00,0.00"/>
    <rerouter id="rerouter_4" edges="edge10" pos="0.00,0.00"/>
    <rerouter id="rerouter_5" edges="edge15" pos="0.00,0.00"/>
    <rerouter id="rerouter_6" edges="edge21" pos="0.00,0.00"/>
</additional>
